results/2026-03-17/bilevel_comparisons_single_period/solution_bus_voltage_per_phase_motivation_c_palma_acpf.csv
bus_name,phase,voltage_pu
611,A,0.0
611,B,0.0
611,C,0.0
632,A,1.034200769363899
632,B,1.0154394786501355
632,C,1.0231048018717648
633,A,0.0
633,B,0.0
633,C,0.0
634,A,0.0
634,B,0.0
634,C,0.0
645,A,1.034200769363899
645,B,1.0154394758789969
645,C,1.0231048000343081
646,A,1.0347336824961173
646,B,1.0138409283525085
646,C,1.022126393832793
652,A,0.0
652,B,0.0
652,C,0.0
670,A,1.0348564216598148
670,B,1.0142248565794165
670,C,1.0214410115088828
671,A,0.0
671,B,0.0
671,C,0.0
675,A,0.0
675,B,0.0
675,C,0.0
680,A,0.0
680,B,0.0
680,C,0.0
684,A,0.0
684,B,0.0
684,C,0.0
692,A,0.0
692,B,0.0
692,C,0.0
rg60,A,1.0299999999999998
rg60,B,1.03
rg60,C,1.0299999999999998
